 Comunidad_de_riego_Turia_ SWAT+ Aug 27 2024        MODULAR Rev 2024.61.0.1                               
                                        zmx       usle_k       sumfc       sumul      usle_p     usle_ls        esco        epco     cn3_swf       perco     latq_co   tiledrain 
 sname           hydgrp                 (mm)                    (mm)        (mm)                                                                                     0=notile;1=tile;
aqxe            D                  1000.0000      0.0000    100.0000    474.6016      0.1200      0.0670      0.9500      0.5000      0.9500      0.0500      0.0100           0
