                   SWAT+               
            Revision 61.0.1           
      Soil & Water Assessment Tool    
               PC Version             
    Program reading . . . executing

